version 2
1
9
.tran 10u 10m{return}.kicad adjustpaths{return}.save all{return}.probe alli
5
1
V(/24V_in)
 
1
V(/24V_out)
 
1
V(V_R1)
 
1
V(V_R2)
 
1
V(V_R3-4)
 
